data_test
_audit_creation_method	'Created with CONVERT.DLL (www.crystalimpact.com)'
_audit_creation_date	2011-09-12
_audit_update_record	2011-09-12
_chemical_formula_sum	'Mg6 O44 C84'
_chemical_formula_weight	1858.728
_cell_length_a	12.5738(18)
_cell_length_b	12.5738(18)
_cell_length_c	14.334(3)
_cell_angle_alpha	90.000
_cell_angle_beta	90.000
_cell_angle_gamma	120.000
_cell_volume	1962.6(7)
_symmetry_int_tables_number	147
_symmetry_space_group_name_H-M	'P -3'
_symmetry_space_group_name_Hall	'-P_3'

loop_
_symmetry_equiv_pos_site_id
_symmetry_equiv_pos_as_xyz
1 x,y,z
2 -y,x-y,z
3 -x+y,-x,z
4 -x,-y,-z
5 y,-x+y,-z
6 x-y,x,-z

loop_
_atom_type_symbol
_atom_type_oxidation_number
_atom_type_radius_bond
Mg	?	1.200
O	?	1.200
C	?	1.200


loop_
_atom_site_label
_atom_site_type_symbol
_atom_site_fract_x
_atom_site_fract_y
_atom_site_fract_z
_atom_site_occupancy
_atom_site_symmetry_multiplicity
_atom_site_Wyckoff_symbol
_atom_site_attached_hydrogens
_atom_site_calc_flag
_atom_site_thermal_displace_type
_atom_site_u_iso_or_equiv
MG1 Mg  0.2061  0.7196 -0.5000  1.000 6 g ? d Uiso  0.05000
O1 O  0.7070  1.1456 -0.3966  1.000 6 g ? d Uiso  0.05000
O2 O  0.2931  0.8544 -0.3965  1.000 6 g ? d Uiso  0.05000
O3 O  0.0609  0.7537 -0.4999  1.000 6 g ? d Uiso  0.05000
O4 O  0.4819  0.8778 -0.3862  1.000 6 g ? d Uiso  0.05000
O5 O  0.5179  1.1223 -0.3863  1.000 6 g ? d Uiso  0.05000
C6 C  0.4999  0.9998 -0.1021  1.000 6 g ? d Uiso  0.05000
C7 C  0.6062  1.0884 -0.0514  1.000 6 g ? d Uiso  0.05000
C8 C  0.3935  0.9116 -0.0515  1.000 6 g ? d Uiso  0.05000
C9 C  0.3905  0.8804 -0.3529  1.000 6 g ? d Uiso  0.05000
C10 C  0.6091  1.1197 -0.3530  1.000 6 g ? d Uiso  0.05000
C11 C  0.4998  1.0000 -0.2026  1.000 6 g ? d Uiso  0.05000
C12 C  0.3937  0.9078 -0.2504  1.000 6 g ? d Uiso  0.05000
C13 C  0.6064  1.0923 -0.2500  1.000 6 g ? d Uiso  0.05000
O14 O  0.3333  0.6667 -0.4999  1.000 2 d ? d Uiso  0.05000
C15 C  0.2920  0.8266 -0.1020  1.000 6 g ? d Uiso  0.05000
C16 C  0.7080  1.1735 -0.1018  1.000 6 g ? d Uiso  0.05000
C18 C  0.2925  0.8256 -0.1995  1.000 6 g ? d Uiso  0.05000
C19 C  0.7081  1.1748 -0.1996  1.000 6 g ? d Uiso  0.05000
O6 O  0.1812  0.2346  0.3223  1.000 6 g ? d Uiso  0.05000
O7 O  0.2344  0.0526  0.3226  1.000 6 g ? d Uiso  0.05000
C3 C  0.0622  0.2083  0.3333  1.000 6 g ? d Uiso  0.05000
C4 C  0.2076  0.1461  0.3351  1.000 6 g ? d Uiso  0.05000

